10
Coordinates from ORCA-job acetone_B3LYP_cc-pVTZ_OPT
  C   0.09866969251138     -1.35936739674027      0.70867207124202
  C   0.10024674699642     -0.25805180486230     -0.33043825101609
  C   1.32661833100364     -0.16208829527872     -1.21363882528425
  O   -0.82939093445415      0.50641134583284     -0.44823261028700
  H   -0.82749239719971     -1.33276448167598      1.27704766504344
  H   0.20754965781585     -2.33460141271187      0.22833088071711
  H   0.94901001397596     -1.24428156767662      1.38512886985038
  H   1.47490921952276     -1.09665207088677     -1.75998403701092
  H   2.22078591310447     -0.00784711646692     -0.60531793391932
  H   1.21503375672336      0.65933280046661     -1.91670782933536
