10
Coordinates from ORCA-job acetone_B3LYP_cc-pVDZ_OPT
  C   0.09709896596563     -1.36095780975516      0.71128555502770
  C   0.09789669838328     -0.25509998506969     -0.33013634723241
  C   1.32843266767108     -0.16029344701545     -1.21609061764696
  O   -0.83678022760435      0.51147785561385     -0.44957165108445
  H   -0.83901997913516     -1.33251585637455      1.28502683375417
  H   0.20587127289235     -2.34660044026011      0.22672436533347
  H   0.95612443802564     -1.24732751166522      1.39513781071638
  H   1.47972573325277     -1.10433794714602     -1.76765332544756
  H   2.23269259499555     -0.00358940827287     -0.60319762050910
  H   1.21389783555321      0.66933454994522     -1.92666500291124
