7
Coordinates from ORCA-job acetaldehyde_B3LYP_cc-pVTZ_OPT
  C   1.44456197061671     -0.02200215997804     -0.25763793125018
  C   -0.04225443257101      0.03469840655478     -0.05472523380337
  O   -0.73436066470779      0.98524558085855     -0.31204638691583
  H   1.81477696304300      0.91342068236703     -0.67154360956166
  H   1.93657417883421     -0.23075342991337      0.69635280782605
  H   1.69136548798168     -0.85256201966470     -0.92497801101529
  H   -0.49341350319680     -0.88966706022425      0.36529836472028
