6
Coordinates from ORCA-job methanol_B3LYP_cc-pVTZ_OPT
  O   1.43059527283783     -0.00810659541921      0.00000000171574
  C   0.01121746760143      0.02148761052699      0.00000000104710
  H   1.75574306801332      0.89594051860611     -0.00000000340720
  H   -0.32764410931727     -1.01316537059069     -0.00000000052167
  H   -0.39662585156843      0.51389691738966      0.88977742361188
  H   -0.39662584756689      0.51389691948714     -0.88977742244583
